* NGSPICE file created from SUNTR_RG12TRIX1_CV.ext - technology: sky130B

.subckt SUNTR_RG12TRIX1_CV D<11> D<10> D<9> D<8> D<7> D<6> D<5> D<4> D<3> D<2> D<1>
+ D<0> CK C CN Y<11> Y<10> Y<9> Y<8> Y<7> Y<6> Y<5> Y<4> Y<3> Y<2> Y<1> Y<0> AVDD
+ AVSS
X0 XK10/XA0/MP1/S XK10/XA0/A AVDD AVDD sky130_fd_pr__pfet_01v8 ad=0p pd=0u as=1.10808e+14p ps=5.94e+08u w=1.08e+06u l=180000u
X1 Y<1> CN XK10/XA0/MP1/S AVDD sky130_fd_pr__pfet_01v8 ad=6.156e+11p pd=3.3e+06u as=0p ps=0u w=1.08e+06u l=180000u
X2 XK10/XA0/MN1/S XK10/XA0/A AVSS AVSS sky130_fd_pr__nfet_01v8 ad=0p pd=0u as=9.60336e+13p ps=5.148e+08u w=1.08e+06u l=180000u
X3 Y<1> C XK10/XA0/MN1/S AVSS sky130_fd_pr__nfet_01v8 ad=6.156e+11p pd=3.3e+06u as=0p ps=0u w=1.08e+06u l=180000u
X4 AVDD AVDD AVDD AVDD sky130_fd_pr__pfet_01v8 ad=0p pd=0u as=0p ps=0u w=1.08e+06u l=180000u
X5 AVSS AVSS AVSS AVSS sky130_fd_pr__nfet_01v8 ad=0p pd=0u as=0p ps=0u w=1.08e+06u l=180000u
X6 XK10/XA2/XA7/C CK AVDD AVDD sky130_fd_pr__pfet_01v8 ad=0p pd=0u as=0p ps=0u w=1.08e+06u l=180000u
X7 AVDD C XK10/XA2/XA7/C AVDD sky130_fd_pr__pfet_01v8 ad=0p pd=0u as=0p ps=0u w=1.08e+06u l=180000u
X8 XK10/XA2/XA1/MN1/S CK AVSS AVSS sky130_fd_pr__nfet_01v8 ad=0p pd=0u as=0p ps=0u w=1.08e+06u l=180000u
X9 XK10/XA2/XA7/C C XK10/XA2/XA1/MN1/S AVSS sky130_fd_pr__nfet_01v8 ad=0p pd=0u as=0p ps=0u w=1.08e+06u l=180000u
X10 XK10/XA2/XA6/C XK10/XA2/XA7/C AVDD AVDD sky130_fd_pr__pfet_01v8 ad=0p pd=0u as=0p ps=0u w=1.08e+06u l=180000u
X11 XK10/XA2/XA6/C XK10/XA2/XA7/C AVSS AVSS sky130_fd_pr__nfet_01v8 ad=0p pd=0u as=0p ps=0u w=1.08e+06u l=180000u
X12 XK10/XA2/XA3/MP1/S D<1> AVDD AVDD sky130_fd_pr__pfet_01v8 ad=0p pd=0u as=0p ps=0u w=1.08e+06u l=180000u
X13 XK10/XA2/XA5/A XK10/XA2/XA6/C XK10/XA2/XA3/MP1/S AVDD sky130_fd_pr__pfet_01v8 ad=0p pd=0u as=0p ps=0u w=1.08e+06u l=180000u
X14 XK10/XA2/XA3/MN1/S D<1> AVSS AVSS sky130_fd_pr__nfet_01v8 ad=0p pd=0u as=0p ps=0u w=1.08e+06u l=180000u
X15 XK10/XA2/XA5/A XK10/XA2/XA7/C XK10/XA2/XA3/MN1/S AVSS sky130_fd_pr__nfet_01v8 ad=0p pd=0u as=0p ps=0u w=1.08e+06u l=180000u
X16 XK10/XA2/XA6/A XK10/XA2/XA5/A AVDD AVDD sky130_fd_pr__pfet_01v8 ad=0p pd=0u as=0p ps=0u w=1.08e+06u l=180000u
X17 XK10/XA2/XA6/A XK10/XA2/XA5/A AVSS AVSS sky130_fd_pr__nfet_01v8 ad=0p pd=0u as=0p ps=0u w=1.08e+06u l=180000u
X18 XK10/XA2/XA4/MP1/S XK10/XA2/XA6/A AVDD AVDD sky130_fd_pr__pfet_01v8 ad=0p pd=0u as=0p ps=0u w=1.08e+06u l=180000u
X19 XK10/XA2/XA5/A XK10/XA2/XA7/C XK10/XA2/XA4/MP1/S AVDD sky130_fd_pr__pfet_01v8 ad=0p pd=0u as=0p ps=0u w=1.08e+06u l=180000u
X20 XK10/XA2/XA4/MN1/S XK10/XA2/XA6/A AVSS AVSS sky130_fd_pr__nfet_01v8 ad=0p pd=0u as=0p ps=0u w=1.08e+06u l=180000u
X21 XK10/XA2/XA5/A XK10/XA2/XA6/C XK10/XA2/XA4/MN1/S AVSS sky130_fd_pr__nfet_01v8 ad=0p pd=0u as=0p ps=0u w=1.08e+06u l=180000u
X22 XK10/XA2/XA6/MP1/S XK10/XA2/XA6/A AVDD AVDD sky130_fd_pr__pfet_01v8 ad=0p pd=0u as=0p ps=0u w=1.08e+06u l=180000u
X23 XK10/XA0/A XK10/XA2/XA7/C XK10/XA2/XA6/MP1/S AVDD sky130_fd_pr__pfet_01v8 ad=0p pd=0u as=0p ps=0u w=1.08e+06u l=180000u
X24 XK10/XA2/XA6/MN1/S XK10/XA2/XA6/A AVSS AVSS sky130_fd_pr__nfet_01v8 ad=0p pd=0u as=0p ps=0u w=1.08e+06u l=180000u
X25 XK10/XA0/A XK10/XA2/XA6/C XK10/XA2/XA6/MN1/S AVSS sky130_fd_pr__nfet_01v8 ad=0p pd=0u as=0p ps=0u w=1.08e+06u l=180000u
X26 XK10/XA2/XA7/MP2/S XK10/XA2/Q AVDD AVDD sky130_fd_pr__pfet_01v8 ad=0p pd=0u as=0p ps=0u w=1.08e+06u l=180000u
X27 XK10/XA0/A XK10/XA2/XA6/C XK10/XA2/XA7/MP2/S AVDD sky130_fd_pr__pfet_01v8 ad=0p pd=0u as=0p ps=0u w=1.08e+06u l=180000u
X28 XK10/XA2/XA7/MP2/S XK10/XA2/Q XK10/XA2/XA7/MN2/D AVSS sky130_fd_pr__nfet_01v8 ad=0p pd=0u as=0p ps=0u w=1.08e+06u l=180000u
X29 AVDD C XK10/XA2/XA7/MP2/S AVDD sky130_fd_pr__pfet_01v8 ad=0p pd=0u as=0p ps=0u w=1.08e+06u l=180000u
X30 XK10/XA0/A XK10/XA2/XA7/C XK10/XA2/XA7/MP2/S AVSS sky130_fd_pr__nfet_01v8 ad=0p pd=0u as=0p ps=0u w=1.08e+06u l=180000u
X31 XK10/XA2/XA7/MN2/D C AVSS AVSS sky130_fd_pr__nfet_01v8 ad=0p pd=0u as=0p ps=0u w=1.08e+06u l=180000u
X32 XK10/XA2/Q XK10/XA0/A AVDD AVDD sky130_fd_pr__pfet_01v8 ad=0p pd=0u as=0p ps=0u w=1.08e+06u l=180000u
X33 XK10/XA2/Q XK10/XA0/A AVSS AVSS sky130_fd_pr__nfet_01v8 ad=0p pd=0u as=0p ps=0u w=1.08e+06u l=180000u
X34 AVDD AVDD AVDD AVDD sky130_fd_pr__pfet_01v8 ad=0p pd=0u as=0p ps=0u w=1.08e+06u l=180000u
X35 AVSS AVSS AVSS AVSS sky130_fd_pr__nfet_01v8 ad=0p pd=0u as=0p ps=0u w=1.08e+06u l=180000u
X36 XL11/XA0/MP1/S XL11/XA0/A AVDD AVDD sky130_fd_pr__pfet_01v8 ad=0p pd=0u as=0p ps=0u w=1.08e+06u l=180000u
X37 Y<0> CN XL11/XA0/MP1/S AVDD sky130_fd_pr__pfet_01v8 ad=6.156e+11p pd=3.3e+06u as=0p ps=0u w=1.08e+06u l=180000u
X38 XL11/XA0/MN1/S XL11/XA0/A AVSS AVSS sky130_fd_pr__nfet_01v8 ad=0p pd=0u as=0p ps=0u w=1.08e+06u l=180000u
X39 Y<0> C XL11/XA0/MN1/S AVSS sky130_fd_pr__nfet_01v8 ad=6.156e+11p pd=3.3e+06u as=0p ps=0u w=1.08e+06u l=180000u
X40 AVDD AVDD AVDD AVDD sky130_fd_pr__pfet_01v8 ad=0p pd=0u as=0p ps=0u w=1.08e+06u l=180000u
X41 AVSS AVSS AVSS AVSS sky130_fd_pr__nfet_01v8 ad=0p pd=0u as=0p ps=0u w=1.08e+06u l=180000u
X42 XL11/XA2/XA7/C CK AVDD AVDD sky130_fd_pr__pfet_01v8 ad=0p pd=0u as=0p ps=0u w=1.08e+06u l=180000u
X43 AVDD C XL11/XA2/XA7/C AVDD sky130_fd_pr__pfet_01v8 ad=0p pd=0u as=0p ps=0u w=1.08e+06u l=180000u
X44 XL11/XA2/XA1/MN1/S CK AVSS AVSS sky130_fd_pr__nfet_01v8 ad=0p pd=0u as=0p ps=0u w=1.08e+06u l=180000u
X45 XL11/XA2/XA7/C C XL11/XA2/XA1/MN1/S AVSS sky130_fd_pr__nfet_01v8 ad=0p pd=0u as=0p ps=0u w=1.08e+06u l=180000u
X46 XL11/XA2/XA6/C XL11/XA2/XA7/C AVDD AVDD sky130_fd_pr__pfet_01v8 ad=0p pd=0u as=0p ps=0u w=1.08e+06u l=180000u
X47 XL11/XA2/XA6/C XL11/XA2/XA7/C AVSS AVSS sky130_fd_pr__nfet_01v8 ad=0p pd=0u as=0p ps=0u w=1.08e+06u l=180000u
X48 XL11/XA2/XA3/MP1/S D<0> AVDD AVDD sky130_fd_pr__pfet_01v8 ad=0p pd=0u as=0p ps=0u w=1.08e+06u l=180000u
X49 XL11/XA2/XA5/A XL11/XA2/XA6/C XL11/XA2/XA3/MP1/S AVDD sky130_fd_pr__pfet_01v8 ad=0p pd=0u as=0p ps=0u w=1.08e+06u l=180000u
X50 XL11/XA2/XA3/MN1/S D<0> AVSS AVSS sky130_fd_pr__nfet_01v8 ad=0p pd=0u as=0p ps=0u w=1.08e+06u l=180000u
X51 XL11/XA2/XA5/A XL11/XA2/XA7/C XL11/XA2/XA3/MN1/S AVSS sky130_fd_pr__nfet_01v8 ad=0p pd=0u as=0p ps=0u w=1.08e+06u l=180000u
X52 XL11/XA2/XA6/A XL11/XA2/XA5/A AVDD AVDD sky130_fd_pr__pfet_01v8 ad=0p pd=0u as=0p ps=0u w=1.08e+06u l=180000u
X53 XL11/XA2/XA6/A XL11/XA2/XA5/A AVSS AVSS sky130_fd_pr__nfet_01v8 ad=0p pd=0u as=0p ps=0u w=1.08e+06u l=180000u
X54 XL11/XA2/XA4/MP1/S XL11/XA2/XA6/A AVDD AVDD sky130_fd_pr__pfet_01v8 ad=0p pd=0u as=0p ps=0u w=1.08e+06u l=180000u
X55 XL11/XA2/XA5/A XL11/XA2/XA7/C XL11/XA2/XA4/MP1/S AVDD sky130_fd_pr__pfet_01v8 ad=0p pd=0u as=0p ps=0u w=1.08e+06u l=180000u
X56 XL11/XA2/XA4/MN1/S XL11/XA2/XA6/A AVSS AVSS sky130_fd_pr__nfet_01v8 ad=0p pd=0u as=0p ps=0u w=1.08e+06u l=180000u
X57 XL11/XA2/XA5/A XL11/XA2/XA6/C XL11/XA2/XA4/MN1/S AVSS sky130_fd_pr__nfet_01v8 ad=0p pd=0u as=0p ps=0u w=1.08e+06u l=180000u
X58 XL11/XA2/XA6/MP1/S XL11/XA2/XA6/A AVDD AVDD sky130_fd_pr__pfet_01v8 ad=0p pd=0u as=0p ps=0u w=1.08e+06u l=180000u
X59 XL11/XA0/A XL11/XA2/XA7/C XL11/XA2/XA6/MP1/S AVDD sky130_fd_pr__pfet_01v8 ad=0p pd=0u as=0p ps=0u w=1.08e+06u l=180000u
X60 XL11/XA2/XA6/MN1/S XL11/XA2/XA6/A AVSS AVSS sky130_fd_pr__nfet_01v8 ad=0p pd=0u as=0p ps=0u w=1.08e+06u l=180000u
X61 XL11/XA0/A XL11/XA2/XA6/C XL11/XA2/XA6/MN1/S AVSS sky130_fd_pr__nfet_01v8 ad=0p pd=0u as=0p ps=0u w=1.08e+06u l=180000u
X62 XL11/XA2/XA7/MP2/S XL11/XA2/Q AVDD AVDD sky130_fd_pr__pfet_01v8 ad=0p pd=0u as=0p ps=0u w=1.08e+06u l=180000u
X63 XL11/XA0/A XL11/XA2/XA6/C XL11/XA2/XA7/MP2/S AVDD sky130_fd_pr__pfet_01v8 ad=0p pd=0u as=0p ps=0u w=1.08e+06u l=180000u
X64 XL11/XA2/XA7/MP2/S XL11/XA2/Q XL11/XA2/XA7/MN2/D AVSS sky130_fd_pr__nfet_01v8 ad=0p pd=0u as=0p ps=0u w=1.08e+06u l=180000u
X65 AVDD C XL11/XA2/XA7/MP2/S AVDD sky130_fd_pr__pfet_01v8 ad=0p pd=0u as=0p ps=0u w=1.08e+06u l=180000u
X66 XL11/XA0/A XL11/XA2/XA7/C XL11/XA2/XA7/MP2/S AVSS sky130_fd_pr__nfet_01v8 ad=0p pd=0u as=0p ps=0u w=1.08e+06u l=180000u
X67 XL11/XA2/XA7/MN2/D C AVSS AVSS sky130_fd_pr__nfet_01v8 ad=0p pd=0u as=0p ps=0u w=1.08e+06u l=180000u
X68 XL11/XA2/Q XL11/XA0/A AVDD AVDD sky130_fd_pr__pfet_01v8 ad=0p pd=0u as=0p ps=0u w=1.08e+06u l=180000u
X69 XL11/XA2/Q XL11/XA0/A AVSS AVSS sky130_fd_pr__nfet_01v8 ad=0p pd=0u as=0p ps=0u w=1.08e+06u l=180000u
X70 AVDD AVDD AVDD AVDD sky130_fd_pr__pfet_01v8 ad=0p pd=0u as=0p ps=0u w=1.08e+06u l=180000u
X71 AVSS AVSS AVSS AVSS sky130_fd_pr__nfet_01v8 ad=0p pd=0u as=0p ps=0u w=1.08e+06u l=180000u
X72 XJ9/XA0/MP1/S XJ9/XA0/A AVDD AVDD sky130_fd_pr__pfet_01v8 ad=0p pd=0u as=0p ps=0u w=1.08e+06u l=180000u
X73 Y<2> CN XJ9/XA0/MP1/S AVDD sky130_fd_pr__pfet_01v8 ad=6.156e+11p pd=3.3e+06u as=0p ps=0u w=1.08e+06u l=180000u
X74 XJ9/XA0/MN1/S XJ9/XA0/A AVSS AVSS sky130_fd_pr__nfet_01v8 ad=0p pd=0u as=0p ps=0u w=1.08e+06u l=180000u
X75 Y<2> C XJ9/XA0/MN1/S AVSS sky130_fd_pr__nfet_01v8 ad=6.156e+11p pd=3.3e+06u as=0p ps=0u w=1.08e+06u l=180000u
X76 AVDD AVDD AVDD AVDD sky130_fd_pr__pfet_01v8 ad=0p pd=0u as=0p ps=0u w=1.08e+06u l=180000u
X77 AVSS AVSS AVSS AVSS sky130_fd_pr__nfet_01v8 ad=0p pd=0u as=0p ps=0u w=1.08e+06u l=180000u
X78 XJ9/XA2/XA7/C CK AVDD AVDD sky130_fd_pr__pfet_01v8 ad=0p pd=0u as=0p ps=0u w=1.08e+06u l=180000u
X79 AVDD C XJ9/XA2/XA7/C AVDD sky130_fd_pr__pfet_01v8 ad=0p pd=0u as=0p ps=0u w=1.08e+06u l=180000u
X80 XJ9/XA2/XA1/MN1/S CK AVSS AVSS sky130_fd_pr__nfet_01v8 ad=0p pd=0u as=0p ps=0u w=1.08e+06u l=180000u
X81 XJ9/XA2/XA7/C C XJ9/XA2/XA1/MN1/S AVSS sky130_fd_pr__nfet_01v8 ad=0p pd=0u as=0p ps=0u w=1.08e+06u l=180000u
X82 XJ9/XA2/XA6/C XJ9/XA2/XA7/C AVDD AVDD sky130_fd_pr__pfet_01v8 ad=0p pd=0u as=0p ps=0u w=1.08e+06u l=180000u
X83 XJ9/XA2/XA6/C XJ9/XA2/XA7/C AVSS AVSS sky130_fd_pr__nfet_01v8 ad=0p pd=0u as=0p ps=0u w=1.08e+06u l=180000u
X84 XJ9/XA2/XA3/MP1/S D<2> AVDD AVDD sky130_fd_pr__pfet_01v8 ad=0p pd=0u as=0p ps=0u w=1.08e+06u l=180000u
X85 XJ9/XA2/XA5/A XJ9/XA2/XA6/C XJ9/XA2/XA3/MP1/S AVDD sky130_fd_pr__pfet_01v8 ad=0p pd=0u as=0p ps=0u w=1.08e+06u l=180000u
X86 XJ9/XA2/XA3/MN1/S D<2> AVSS AVSS sky130_fd_pr__nfet_01v8 ad=0p pd=0u as=0p ps=0u w=1.08e+06u l=180000u
X87 XJ9/XA2/XA5/A XJ9/XA2/XA7/C XJ9/XA2/XA3/MN1/S AVSS sky130_fd_pr__nfet_01v8 ad=0p pd=0u as=0p ps=0u w=1.08e+06u l=180000u
X88 XJ9/XA2/XA6/A XJ9/XA2/XA5/A AVDD AVDD sky130_fd_pr__pfet_01v8 ad=0p pd=0u as=0p ps=0u w=1.08e+06u l=180000u
X89 XJ9/XA2/XA6/A XJ9/XA2/XA5/A AVSS AVSS sky130_fd_pr__nfet_01v8 ad=0p pd=0u as=0p ps=0u w=1.08e+06u l=180000u
X90 XJ9/XA2/XA4/MP1/S XJ9/XA2/XA6/A AVDD AVDD sky130_fd_pr__pfet_01v8 ad=0p pd=0u as=0p ps=0u w=1.08e+06u l=180000u
X91 XJ9/XA2/XA5/A XJ9/XA2/XA7/C XJ9/XA2/XA4/MP1/S AVDD sky130_fd_pr__pfet_01v8 ad=0p pd=0u as=0p ps=0u w=1.08e+06u l=180000u
X92 XJ9/XA2/XA4/MN1/S XJ9/XA2/XA6/A AVSS AVSS sky130_fd_pr__nfet_01v8 ad=0p pd=0u as=0p ps=0u w=1.08e+06u l=180000u
X93 XJ9/XA2/XA5/A XJ9/XA2/XA6/C XJ9/XA2/XA4/MN1/S AVSS sky130_fd_pr__nfet_01v8 ad=0p pd=0u as=0p ps=0u w=1.08e+06u l=180000u
X94 XJ9/XA2/XA6/MP1/S XJ9/XA2/XA6/A AVDD AVDD sky130_fd_pr__pfet_01v8 ad=0p pd=0u as=0p ps=0u w=1.08e+06u l=180000u
X95 XJ9/XA0/A XJ9/XA2/XA7/C XJ9/XA2/XA6/MP1/S AVDD sky130_fd_pr__pfet_01v8 ad=0p pd=0u as=0p ps=0u w=1.08e+06u l=180000u
X96 XJ9/XA2/XA6/MN1/S XJ9/XA2/XA6/A AVSS AVSS sky130_fd_pr__nfet_01v8 ad=0p pd=0u as=0p ps=0u w=1.08e+06u l=180000u
X97 XJ9/XA0/A XJ9/XA2/XA6/C XJ9/XA2/XA6/MN1/S AVSS sky130_fd_pr__nfet_01v8 ad=0p pd=0u as=0p ps=0u w=1.08e+06u l=180000u
X98 XJ9/XA2/XA7/MP2/S XJ9/XA2/Q AVDD AVDD sky130_fd_pr__pfet_01v8 ad=0p pd=0u as=0p ps=0u w=1.08e+06u l=180000u
X99 XJ9/XA0/A XJ9/XA2/XA6/C XJ9/XA2/XA7/MP2/S AVDD sky130_fd_pr__pfet_01v8 ad=0p pd=0u as=0p ps=0u w=1.08e+06u l=180000u
X100 XJ9/XA2/XA7/MP2/S XJ9/XA2/Q XJ9/XA2/XA7/MN2/D AVSS sky130_fd_pr__nfet_01v8 ad=0p pd=0u as=0p ps=0u w=1.08e+06u l=180000u
X101 AVDD C XJ9/XA2/XA7/MP2/S AVDD sky130_fd_pr__pfet_01v8 ad=0p pd=0u as=0p ps=0u w=1.08e+06u l=180000u
X102 XJ9/XA0/A XJ9/XA2/XA7/C XJ9/XA2/XA7/MP2/S AVSS sky130_fd_pr__nfet_01v8 ad=0p pd=0u as=0p ps=0u w=1.08e+06u l=180000u
X103 XJ9/XA2/XA7/MN2/D C AVSS AVSS sky130_fd_pr__nfet_01v8 ad=0p pd=0u as=0p ps=0u w=1.08e+06u l=180000u
X104 XJ9/XA2/Q XJ9/XA0/A AVDD AVDD sky130_fd_pr__pfet_01v8 ad=0p pd=0u as=0p ps=0u w=1.08e+06u l=180000u
X105 XJ9/XA2/Q XJ9/XA0/A AVSS AVSS sky130_fd_pr__nfet_01v8 ad=0p pd=0u as=0p ps=0u w=1.08e+06u l=180000u
X106 AVDD AVDD AVDD AVDD sky130_fd_pr__pfet_01v8 ad=0p pd=0u as=0p ps=0u w=1.08e+06u l=180000u
X107 AVSS AVSS AVSS AVSS sky130_fd_pr__nfet_01v8 ad=0p pd=0u as=0p ps=0u w=1.08e+06u l=180000u
X108 XA0/XA0/MP1/S XA0/XA0/A AVDD AVDD sky130_fd_pr__pfet_01v8 ad=0p pd=0u as=0p ps=0u w=1.08e+06u l=180000u
X109 Y<11> CN XA0/XA0/MP1/S AVDD sky130_fd_pr__pfet_01v8 ad=6.156e+11p pd=3.3e+06u as=0p ps=0u w=1.08e+06u l=180000u
X110 XA0/XA0/MN1/S XA0/XA0/A AVSS AVSS sky130_fd_pr__nfet_01v8 ad=0p pd=0u as=0p ps=0u w=1.08e+06u l=180000u
X111 Y<11> C XA0/XA0/MN1/S AVSS sky130_fd_pr__nfet_01v8 ad=6.156e+11p pd=3.3e+06u as=0p ps=0u w=1.08e+06u l=180000u
X112 AVDD AVDD AVDD AVDD sky130_fd_pr__pfet_01v8 ad=0p pd=0u as=0p ps=0u w=1.08e+06u l=180000u
X113 AVSS AVSS AVSS AVSS sky130_fd_pr__nfet_01v8 ad=0p pd=0u as=0p ps=0u w=1.08e+06u l=180000u
X114 XA0/XA2/XA7/C CK AVDD AVDD sky130_fd_pr__pfet_01v8 ad=0p pd=0u as=0p ps=0u w=1.08e+06u l=180000u
X115 AVDD C XA0/XA2/XA7/C AVDD sky130_fd_pr__pfet_01v8 ad=0p pd=0u as=0p ps=0u w=1.08e+06u l=180000u
X116 XA0/XA2/XA1/MN1/S CK AVSS AVSS sky130_fd_pr__nfet_01v8 ad=0p pd=0u as=0p ps=0u w=1.08e+06u l=180000u
X117 XA0/XA2/XA7/C C XA0/XA2/XA1/MN1/S AVSS sky130_fd_pr__nfet_01v8 ad=0p pd=0u as=0p ps=0u w=1.08e+06u l=180000u
X118 XA0/XA2/XA6/C XA0/XA2/XA7/C AVDD AVDD sky130_fd_pr__pfet_01v8 ad=0p pd=0u as=0p ps=0u w=1.08e+06u l=180000u
X119 XA0/XA2/XA6/C XA0/XA2/XA7/C AVSS AVSS sky130_fd_pr__nfet_01v8 ad=0p pd=0u as=0p ps=0u w=1.08e+06u l=180000u
X120 XA0/XA2/XA3/MP1/S D<11> AVDD AVDD sky130_fd_pr__pfet_01v8 ad=0p pd=0u as=0p ps=0u w=1.08e+06u l=180000u
X121 XA0/XA2/XA5/A XA0/XA2/XA6/C XA0/XA2/XA3/MP1/S AVDD sky130_fd_pr__pfet_01v8 ad=0p pd=0u as=0p ps=0u w=1.08e+06u l=180000u
X122 XA0/XA2/XA3/MN1/S D<11> AVSS AVSS sky130_fd_pr__nfet_01v8 ad=0p pd=0u as=0p ps=0u w=1.08e+06u l=180000u
X123 XA0/XA2/XA5/A XA0/XA2/XA7/C XA0/XA2/XA3/MN1/S AVSS sky130_fd_pr__nfet_01v8 ad=0p pd=0u as=0p ps=0u w=1.08e+06u l=180000u
X124 XA0/XA2/XA6/A XA0/XA2/XA5/A AVDD AVDD sky130_fd_pr__pfet_01v8 ad=0p pd=0u as=0p ps=0u w=1.08e+06u l=180000u
X125 XA0/XA2/XA6/A XA0/XA2/XA5/A AVSS AVSS sky130_fd_pr__nfet_01v8 ad=0p pd=0u as=0p ps=0u w=1.08e+06u l=180000u
X126 XA0/XA2/XA4/MP1/S XA0/XA2/XA6/A AVDD AVDD sky130_fd_pr__pfet_01v8 ad=0p pd=0u as=0p ps=0u w=1.08e+06u l=180000u
X127 XA0/XA2/XA5/A XA0/XA2/XA7/C XA0/XA2/XA4/MP1/S AVDD sky130_fd_pr__pfet_01v8 ad=0p pd=0u as=0p ps=0u w=1.08e+06u l=180000u
X128 XA0/XA2/XA4/MN1/S XA0/XA2/XA6/A AVSS AVSS sky130_fd_pr__nfet_01v8 ad=0p pd=0u as=0p ps=0u w=1.08e+06u l=180000u
X129 XA0/XA2/XA5/A XA0/XA2/XA6/C XA0/XA2/XA4/MN1/S AVSS sky130_fd_pr__nfet_01v8 ad=0p pd=0u as=0p ps=0u w=1.08e+06u l=180000u
X130 XA0/XA2/XA6/MP1/S XA0/XA2/XA6/A AVDD AVDD sky130_fd_pr__pfet_01v8 ad=0p pd=0u as=0p ps=0u w=1.08e+06u l=180000u
X131 XA0/XA0/A XA0/XA2/XA7/C XA0/XA2/XA6/MP1/S AVDD sky130_fd_pr__pfet_01v8 ad=0p pd=0u as=0p ps=0u w=1.08e+06u l=180000u
X132 XA0/XA2/XA6/MN1/S XA0/XA2/XA6/A AVSS AVSS sky130_fd_pr__nfet_01v8 ad=0p pd=0u as=0p ps=0u w=1.08e+06u l=180000u
X133 XA0/XA0/A XA0/XA2/XA6/C XA0/XA2/XA6/MN1/S AVSS sky130_fd_pr__nfet_01v8 ad=0p pd=0u as=0p ps=0u w=1.08e+06u l=180000u
X134 XA0/XA2/XA7/MP2/S XA0/XA2/Q AVDD AVDD sky130_fd_pr__pfet_01v8 ad=0p pd=0u as=0p ps=0u w=1.08e+06u l=180000u
X135 XA0/XA0/A XA0/XA2/XA6/C XA0/XA2/XA7/MP2/S AVDD sky130_fd_pr__pfet_01v8 ad=0p pd=0u as=0p ps=0u w=1.08e+06u l=180000u
X136 XA0/XA2/XA7/MP2/S XA0/XA2/Q XA0/XA2/XA7/MN2/D AVSS sky130_fd_pr__nfet_01v8 ad=0p pd=0u as=0p ps=0u w=1.08e+06u l=180000u
X137 AVDD C XA0/XA2/XA7/MP2/S AVDD sky130_fd_pr__pfet_01v8 ad=0p pd=0u as=0p ps=0u w=1.08e+06u l=180000u
X138 XA0/XA0/A XA0/XA2/XA7/C XA0/XA2/XA7/MP2/S AVSS sky130_fd_pr__nfet_01v8 ad=0p pd=0u as=0p ps=0u w=1.08e+06u l=180000u
X139 XA0/XA2/XA7/MN2/D C AVSS AVSS sky130_fd_pr__nfet_01v8 ad=0p pd=0u as=0p ps=0u w=1.08e+06u l=180000u
X140 XA0/XA2/Q XA0/XA0/A AVDD AVDD sky130_fd_pr__pfet_01v8 ad=0p pd=0u as=0p ps=0u w=1.08e+06u l=180000u
X141 XA0/XA2/Q XA0/XA0/A AVSS AVSS sky130_fd_pr__nfet_01v8 ad=0p pd=0u as=0p ps=0u w=1.08e+06u l=180000u
X142 AVDD AVDD AVDD AVDD sky130_fd_pr__pfet_01v8 ad=0p pd=0u as=0p ps=0u w=1.08e+06u l=180000u
X143 AVSS AVSS AVSS AVSS sky130_fd_pr__nfet_01v8 ad=0p pd=0u as=0p ps=0u w=1.08e+06u l=180000u
X144 XB1/XA0/MP1/S XB1/XA0/A AVDD AVDD sky130_fd_pr__pfet_01v8 ad=0p pd=0u as=0p ps=0u w=1.08e+06u l=180000u
X145 Y<10> CN XB1/XA0/MP1/S AVDD sky130_fd_pr__pfet_01v8 ad=6.156e+11p pd=3.3e+06u as=0p ps=0u w=1.08e+06u l=180000u
X146 XB1/XA0/MN1/S XB1/XA0/A AVSS AVSS sky130_fd_pr__nfet_01v8 ad=0p pd=0u as=0p ps=0u w=1.08e+06u l=180000u
X147 Y<10> C XB1/XA0/MN1/S AVSS sky130_fd_pr__nfet_01v8 ad=6.156e+11p pd=3.3e+06u as=0p ps=0u w=1.08e+06u l=180000u
X148 AVDD AVDD AVDD AVDD sky130_fd_pr__pfet_01v8 ad=0p pd=0u as=0p ps=0u w=1.08e+06u l=180000u
X149 AVSS AVSS AVSS AVSS sky130_fd_pr__nfet_01v8 ad=0p pd=0u as=0p ps=0u w=1.08e+06u l=180000u
X150 XB1/XA2/XA7/C CK AVDD AVDD sky130_fd_pr__pfet_01v8 ad=0p pd=0u as=0p ps=0u w=1.08e+06u l=180000u
X151 AVDD C XB1/XA2/XA7/C AVDD sky130_fd_pr__pfet_01v8 ad=0p pd=0u as=0p ps=0u w=1.08e+06u l=180000u
X152 XB1/XA2/XA1/MN1/S CK AVSS AVSS sky130_fd_pr__nfet_01v8 ad=0p pd=0u as=0p ps=0u w=1.08e+06u l=180000u
X153 XB1/XA2/XA7/C C XB1/XA2/XA1/MN1/S AVSS sky130_fd_pr__nfet_01v8 ad=0p pd=0u as=0p ps=0u w=1.08e+06u l=180000u
X154 XB1/XA2/XA6/C XB1/XA2/XA7/C AVDD AVDD sky130_fd_pr__pfet_01v8 ad=0p pd=0u as=0p ps=0u w=1.08e+06u l=180000u
X155 XB1/XA2/XA6/C XB1/XA2/XA7/C AVSS AVSS sky130_fd_pr__nfet_01v8 ad=0p pd=0u as=0p ps=0u w=1.08e+06u l=180000u
X156 XB1/XA2/XA3/MP1/S D<10> AVDD AVDD sky130_fd_pr__pfet_01v8 ad=0p pd=0u as=0p ps=0u w=1.08e+06u l=180000u
X157 XB1/XA2/XA5/A XB1/XA2/XA6/C XB1/XA2/XA3/MP1/S AVDD sky130_fd_pr__pfet_01v8 ad=0p pd=0u as=0p ps=0u w=1.08e+06u l=180000u
X158 XB1/XA2/XA3/MN1/S D<10> AVSS AVSS sky130_fd_pr__nfet_01v8 ad=0p pd=0u as=0p ps=0u w=1.08e+06u l=180000u
X159 XB1/XA2/XA5/A XB1/XA2/XA7/C XB1/XA2/XA3/MN1/S AVSS sky130_fd_pr__nfet_01v8 ad=0p pd=0u as=0p ps=0u w=1.08e+06u l=180000u
X160 XB1/XA2/XA6/A XB1/XA2/XA5/A AVDD AVDD sky130_fd_pr__pfet_01v8 ad=0p pd=0u as=0p ps=0u w=1.08e+06u l=180000u
X161 XB1/XA2/XA6/A XB1/XA2/XA5/A AVSS AVSS sky130_fd_pr__nfet_01v8 ad=0p pd=0u as=0p ps=0u w=1.08e+06u l=180000u
X162 XB1/XA2/XA4/MP1/S XB1/XA2/XA6/A AVDD AVDD sky130_fd_pr__pfet_01v8 ad=0p pd=0u as=0p ps=0u w=1.08e+06u l=180000u
X163 XB1/XA2/XA5/A XB1/XA2/XA7/C XB1/XA2/XA4/MP1/S AVDD sky130_fd_pr__pfet_01v8 ad=0p pd=0u as=0p ps=0u w=1.08e+06u l=180000u
X164 XB1/XA2/XA4/MN1/S XB1/XA2/XA6/A AVSS AVSS sky130_fd_pr__nfet_01v8 ad=0p pd=0u as=0p ps=0u w=1.08e+06u l=180000u
X165 XB1/XA2/XA5/A XB1/XA2/XA6/C XB1/XA2/XA4/MN1/S AVSS sky130_fd_pr__nfet_01v8 ad=0p pd=0u as=0p ps=0u w=1.08e+06u l=180000u
X166 XB1/XA2/XA6/MP1/S XB1/XA2/XA6/A AVDD AVDD sky130_fd_pr__pfet_01v8 ad=0p pd=0u as=0p ps=0u w=1.08e+06u l=180000u
X167 XB1/XA0/A XB1/XA2/XA7/C XB1/XA2/XA6/MP1/S AVDD sky130_fd_pr__pfet_01v8 ad=0p pd=0u as=0p ps=0u w=1.08e+06u l=180000u
X168 XB1/XA2/XA6/MN1/S XB1/XA2/XA6/A AVSS AVSS sky130_fd_pr__nfet_01v8 ad=0p pd=0u as=0p ps=0u w=1.08e+06u l=180000u
X169 XB1/XA0/A XB1/XA2/XA6/C XB1/XA2/XA6/MN1/S AVSS sky130_fd_pr__nfet_01v8 ad=0p pd=0u as=0p ps=0u w=1.08e+06u l=180000u
X170 XB1/XA2/XA7/MP2/S XB1/XA2/Q AVDD AVDD sky130_fd_pr__pfet_01v8 ad=0p pd=0u as=0p ps=0u w=1.08e+06u l=180000u
X171 XB1/XA0/A XB1/XA2/XA6/C XB1/XA2/XA7/MP2/S AVDD sky130_fd_pr__pfet_01v8 ad=0p pd=0u as=0p ps=0u w=1.08e+06u l=180000u
X172 XB1/XA2/XA7/MP2/S XB1/XA2/Q XB1/XA2/XA7/MN2/D AVSS sky130_fd_pr__nfet_01v8 ad=0p pd=0u as=0p ps=0u w=1.08e+06u l=180000u
X173 AVDD C XB1/XA2/XA7/MP2/S AVDD sky130_fd_pr__pfet_01v8 ad=0p pd=0u as=0p ps=0u w=1.08e+06u l=180000u
X174 XB1/XA0/A XB1/XA2/XA7/C XB1/XA2/XA7/MP2/S AVSS sky130_fd_pr__nfet_01v8 ad=0p pd=0u as=0p ps=0u w=1.08e+06u l=180000u
X175 XB1/XA2/XA7/MN2/D C AVSS AVSS sky130_fd_pr__nfet_01v8 ad=0p pd=0u as=0p ps=0u w=1.08e+06u l=180000u
X176 XB1/XA2/Q XB1/XA0/A AVDD AVDD sky130_fd_pr__pfet_01v8 ad=0p pd=0u as=0p ps=0u w=1.08e+06u l=180000u
X177 XB1/XA2/Q XB1/XA0/A AVSS AVSS sky130_fd_pr__nfet_01v8 ad=0p pd=0u as=0p ps=0u w=1.08e+06u l=180000u
X178 AVDD AVDD AVDD AVDD sky130_fd_pr__pfet_01v8 ad=0p pd=0u as=0p ps=0u w=1.08e+06u l=180000u
X179 AVSS AVSS AVSS AVSS sky130_fd_pr__nfet_01v8 ad=0p pd=0u as=0p ps=0u w=1.08e+06u l=180000u
X180 XC2/XA0/MP1/S XC2/XA0/A AVDD AVDD sky130_fd_pr__pfet_01v8 ad=0p pd=0u as=0p ps=0u w=1.08e+06u l=180000u
X181 Y<9> CN XC2/XA0/MP1/S AVDD sky130_fd_pr__pfet_01v8 ad=6.156e+11p pd=3.3e+06u as=0p ps=0u w=1.08e+06u l=180000u
X182 XC2/XA0/MN1/S XC2/XA0/A AVSS AVSS sky130_fd_pr__nfet_01v8 ad=0p pd=0u as=0p ps=0u w=1.08e+06u l=180000u
X183 Y<9> C XC2/XA0/MN1/S AVSS sky130_fd_pr__nfet_01v8 ad=6.156e+11p pd=3.3e+06u as=0p ps=0u w=1.08e+06u l=180000u
X184 AVDD AVDD AVDD AVDD sky130_fd_pr__pfet_01v8 ad=0p pd=0u as=0p ps=0u w=1.08e+06u l=180000u
X185 AVSS AVSS AVSS AVSS sky130_fd_pr__nfet_01v8 ad=0p pd=0u as=0p ps=0u w=1.08e+06u l=180000u
X186 XC2/XA2/XA7/C CK AVDD AVDD sky130_fd_pr__pfet_01v8 ad=0p pd=0u as=0p ps=0u w=1.08e+06u l=180000u
X187 AVDD C XC2/XA2/XA7/C AVDD sky130_fd_pr__pfet_01v8 ad=0p pd=0u as=0p ps=0u w=1.08e+06u l=180000u
X188 XC2/XA2/XA1/MN1/S CK AVSS AVSS sky130_fd_pr__nfet_01v8 ad=0p pd=0u as=0p ps=0u w=1.08e+06u l=180000u
X189 XC2/XA2/XA7/C C XC2/XA2/XA1/MN1/S AVSS sky130_fd_pr__nfet_01v8 ad=0p pd=0u as=0p ps=0u w=1.08e+06u l=180000u
X190 XC2/XA2/XA6/C XC2/XA2/XA7/C AVDD AVDD sky130_fd_pr__pfet_01v8 ad=0p pd=0u as=0p ps=0u w=1.08e+06u l=180000u
X191 XC2/XA2/XA6/C XC2/XA2/XA7/C AVSS AVSS sky130_fd_pr__nfet_01v8 ad=0p pd=0u as=0p ps=0u w=1.08e+06u l=180000u
X192 XC2/XA2/XA3/MP1/S D<9> AVDD AVDD sky130_fd_pr__pfet_01v8 ad=0p pd=0u as=0p ps=0u w=1.08e+06u l=180000u
X193 XC2/XA2/XA5/A XC2/XA2/XA6/C XC2/XA2/XA3/MP1/S AVDD sky130_fd_pr__pfet_01v8 ad=0p pd=0u as=0p ps=0u w=1.08e+06u l=180000u
X194 XC2/XA2/XA3/MN1/S D<9> AVSS AVSS sky130_fd_pr__nfet_01v8 ad=0p pd=0u as=0p ps=0u w=1.08e+06u l=180000u
X195 XC2/XA2/XA5/A XC2/XA2/XA7/C XC2/XA2/XA3/MN1/S AVSS sky130_fd_pr__nfet_01v8 ad=0p pd=0u as=0p ps=0u w=1.08e+06u l=180000u
X196 XC2/XA2/XA6/A XC2/XA2/XA5/A AVDD AVDD sky130_fd_pr__pfet_01v8 ad=0p pd=0u as=0p ps=0u w=1.08e+06u l=180000u
X197 XC2/XA2/XA6/A XC2/XA2/XA5/A AVSS AVSS sky130_fd_pr__nfet_01v8 ad=0p pd=0u as=0p ps=0u w=1.08e+06u l=180000u
X198 XC2/XA2/XA4/MP1/S XC2/XA2/XA6/A AVDD AVDD sky130_fd_pr__pfet_01v8 ad=0p pd=0u as=0p ps=0u w=1.08e+06u l=180000u
X199 XC2/XA2/XA5/A XC2/XA2/XA7/C XC2/XA2/XA4/MP1/S AVDD sky130_fd_pr__pfet_01v8 ad=0p pd=0u as=0p ps=0u w=1.08e+06u l=180000u
X200 XC2/XA2/XA4/MN1/S XC2/XA2/XA6/A AVSS AVSS sky130_fd_pr__nfet_01v8 ad=0p pd=0u as=0p ps=0u w=1.08e+06u l=180000u
X201 XC2/XA2/XA5/A XC2/XA2/XA6/C XC2/XA2/XA4/MN1/S AVSS sky130_fd_pr__nfet_01v8 ad=0p pd=0u as=0p ps=0u w=1.08e+06u l=180000u
X202 XC2/XA2/XA6/MP1/S XC2/XA2/XA6/A AVDD AVDD sky130_fd_pr__pfet_01v8 ad=0p pd=0u as=0p ps=0u w=1.08e+06u l=180000u
X203 XC2/XA0/A XC2/XA2/XA7/C XC2/XA2/XA6/MP1/S AVDD sky130_fd_pr__pfet_01v8 ad=0p pd=0u as=0p ps=0u w=1.08e+06u l=180000u
X204 XC2/XA2/XA6/MN1/S XC2/XA2/XA6/A AVSS AVSS sky130_fd_pr__nfet_01v8 ad=0p pd=0u as=0p ps=0u w=1.08e+06u l=180000u
X205 XC2/XA0/A XC2/XA2/XA6/C XC2/XA2/XA6/MN1/S AVSS sky130_fd_pr__nfet_01v8 ad=0p pd=0u as=0p ps=0u w=1.08e+06u l=180000u
X206 XC2/XA2/XA7/MP2/S XC2/XA2/Q AVDD AVDD sky130_fd_pr__pfet_01v8 ad=0p pd=0u as=0p ps=0u w=1.08e+06u l=180000u
X207 XC2/XA0/A XC2/XA2/XA6/C XC2/XA2/XA7/MP2/S AVDD sky130_fd_pr__pfet_01v8 ad=0p pd=0u as=0p ps=0u w=1.08e+06u l=180000u
X208 XC2/XA2/XA7/MP2/S XC2/XA2/Q XC2/XA2/XA7/MN2/D AVSS sky130_fd_pr__nfet_01v8 ad=0p pd=0u as=0p ps=0u w=1.08e+06u l=180000u
X209 AVDD C XC2/XA2/XA7/MP2/S AVDD sky130_fd_pr__pfet_01v8 ad=0p pd=0u as=0p ps=0u w=1.08e+06u l=180000u
X210 XC2/XA0/A XC2/XA2/XA7/C XC2/XA2/XA7/MP2/S AVSS sky130_fd_pr__nfet_01v8 ad=0p pd=0u as=0p ps=0u w=1.08e+06u l=180000u
X211 XC2/XA2/XA7/MN2/D C AVSS AVSS sky130_fd_pr__nfet_01v8 ad=0p pd=0u as=0p ps=0u w=1.08e+06u l=180000u
X212 XC2/XA2/Q XC2/XA0/A AVDD AVDD sky130_fd_pr__pfet_01v8 ad=0p pd=0u as=0p ps=0u w=1.08e+06u l=180000u
X213 XC2/XA2/Q XC2/XA0/A AVSS AVSS sky130_fd_pr__nfet_01v8 ad=0p pd=0u as=0p ps=0u w=1.08e+06u l=180000u
X214 AVDD AVDD AVDD AVDD sky130_fd_pr__pfet_01v8 ad=0p pd=0u as=0p ps=0u w=1.08e+06u l=180000u
X215 AVSS AVSS AVSS AVSS sky130_fd_pr__nfet_01v8 ad=0p pd=0u as=0p ps=0u w=1.08e+06u l=180000u
X216 XD3/XA0/MP1/S XD3/XA0/A AVDD AVDD sky130_fd_pr__pfet_01v8 ad=0p pd=0u as=0p ps=0u w=1.08e+06u l=180000u
X217 Y<8> CN XD3/XA0/MP1/S AVDD sky130_fd_pr__pfet_01v8 ad=6.156e+11p pd=3.3e+06u as=0p ps=0u w=1.08e+06u l=180000u
X218 XD3/XA0/MN1/S XD3/XA0/A AVSS AVSS sky130_fd_pr__nfet_01v8 ad=0p pd=0u as=0p ps=0u w=1.08e+06u l=180000u
X219 Y<8> C XD3/XA0/MN1/S AVSS sky130_fd_pr__nfet_01v8 ad=6.156e+11p pd=3.3e+06u as=0p ps=0u w=1.08e+06u l=180000u
X220 AVDD AVDD AVDD AVDD sky130_fd_pr__pfet_01v8 ad=0p pd=0u as=0p ps=0u w=1.08e+06u l=180000u
X221 AVSS AVSS AVSS AVSS sky130_fd_pr__nfet_01v8 ad=0p pd=0u as=0p ps=0u w=1.08e+06u l=180000u
X222 XD3/XA2/XA7/C CK AVDD AVDD sky130_fd_pr__pfet_01v8 ad=0p pd=0u as=0p ps=0u w=1.08e+06u l=180000u
X223 AVDD C XD3/XA2/XA7/C AVDD sky130_fd_pr__pfet_01v8 ad=0p pd=0u as=0p ps=0u w=1.08e+06u l=180000u
X224 XD3/XA2/XA1/MN1/S CK AVSS AVSS sky130_fd_pr__nfet_01v8 ad=0p pd=0u as=0p ps=0u w=1.08e+06u l=180000u
X225 XD3/XA2/XA7/C C XD3/XA2/XA1/MN1/S AVSS sky130_fd_pr__nfet_01v8 ad=0p pd=0u as=0p ps=0u w=1.08e+06u l=180000u
X226 XD3/XA2/XA6/C XD3/XA2/XA7/C AVDD AVDD sky130_fd_pr__pfet_01v8 ad=0p pd=0u as=0p ps=0u w=1.08e+06u l=180000u
X227 XD3/XA2/XA6/C XD3/XA2/XA7/C AVSS AVSS sky130_fd_pr__nfet_01v8 ad=0p pd=0u as=0p ps=0u w=1.08e+06u l=180000u
X228 XD3/XA2/XA3/MP1/S D<8> AVDD AVDD sky130_fd_pr__pfet_01v8 ad=0p pd=0u as=0p ps=0u w=1.08e+06u l=180000u
X229 XD3/XA2/XA5/A XD3/XA2/XA6/C XD3/XA2/XA3/MP1/S AVDD sky130_fd_pr__pfet_01v8 ad=0p pd=0u as=0p ps=0u w=1.08e+06u l=180000u
X230 XD3/XA2/XA3/MN1/S D<8> AVSS AVSS sky130_fd_pr__nfet_01v8 ad=0p pd=0u as=0p ps=0u w=1.08e+06u l=180000u
X231 XD3/XA2/XA5/A XD3/XA2/XA7/C XD3/XA2/XA3/MN1/S AVSS sky130_fd_pr__nfet_01v8 ad=0p pd=0u as=0p ps=0u w=1.08e+06u l=180000u
X232 XD3/XA2/XA6/A XD3/XA2/XA5/A AVDD AVDD sky130_fd_pr__pfet_01v8 ad=0p pd=0u as=0p ps=0u w=1.08e+06u l=180000u
X233 XD3/XA2/XA6/A XD3/XA2/XA5/A AVSS AVSS sky130_fd_pr__nfet_01v8 ad=0p pd=0u as=0p ps=0u w=1.08e+06u l=180000u
X234 XD3/XA2/XA4/MP1/S XD3/XA2/XA6/A AVDD AVDD sky130_fd_pr__pfet_01v8 ad=0p pd=0u as=0p ps=0u w=1.08e+06u l=180000u
X235 XD3/XA2/XA5/A XD3/XA2/XA7/C XD3/XA2/XA4/MP1/S AVDD sky130_fd_pr__pfet_01v8 ad=0p pd=0u as=0p ps=0u w=1.08e+06u l=180000u
X236 XD3/XA2/XA4/MN1/S XD3/XA2/XA6/A AVSS AVSS sky130_fd_pr__nfet_01v8 ad=0p pd=0u as=0p ps=0u w=1.08e+06u l=180000u
X237 XD3/XA2/XA5/A XD3/XA2/XA6/C XD3/XA2/XA4/MN1/S AVSS sky130_fd_pr__nfet_01v8 ad=0p pd=0u as=0p ps=0u w=1.08e+06u l=180000u
X238 XD3/XA2/XA6/MP1/S XD3/XA2/XA6/A AVDD AVDD sky130_fd_pr__pfet_01v8 ad=0p pd=0u as=0p ps=0u w=1.08e+06u l=180000u
X239 XD3/XA0/A XD3/XA2/XA7/C XD3/XA2/XA6/MP1/S AVDD sky130_fd_pr__pfet_01v8 ad=0p pd=0u as=0p ps=0u w=1.08e+06u l=180000u
X240 XD3/XA2/XA6/MN1/S XD3/XA2/XA6/A AVSS AVSS sky130_fd_pr__nfet_01v8 ad=0p pd=0u as=0p ps=0u w=1.08e+06u l=180000u
X241 XD3/XA0/A XD3/XA2/XA6/C XD3/XA2/XA6/MN1/S AVSS sky130_fd_pr__nfet_01v8 ad=0p pd=0u as=0p ps=0u w=1.08e+06u l=180000u
X242 XD3/XA2/XA7/MP2/S XD3/XA2/Q AVDD AVDD sky130_fd_pr__pfet_01v8 ad=0p pd=0u as=0p ps=0u w=1.08e+06u l=180000u
X243 XD3/XA0/A XD3/XA2/XA6/C XD3/XA2/XA7/MP2/S AVDD sky130_fd_pr__pfet_01v8 ad=0p pd=0u as=0p ps=0u w=1.08e+06u l=180000u
X244 XD3/XA2/XA7/MP2/S XD3/XA2/Q XD3/XA2/XA7/MN2/D AVSS sky130_fd_pr__nfet_01v8 ad=0p pd=0u as=0p ps=0u w=1.08e+06u l=180000u
X245 AVDD C XD3/XA2/XA7/MP2/S AVDD sky130_fd_pr__pfet_01v8 ad=0p pd=0u as=0p ps=0u w=1.08e+06u l=180000u
X246 XD3/XA0/A XD3/XA2/XA7/C XD3/XA2/XA7/MP2/S AVSS sky130_fd_pr__nfet_01v8 ad=0p pd=0u as=0p ps=0u w=1.08e+06u l=180000u
X247 XD3/XA2/XA7/MN2/D C AVSS AVSS sky130_fd_pr__nfet_01v8 ad=0p pd=0u as=0p ps=0u w=1.08e+06u l=180000u
X248 XD3/XA2/Q XD3/XA0/A AVDD AVDD sky130_fd_pr__pfet_01v8 ad=0p pd=0u as=0p ps=0u w=1.08e+06u l=180000u
X249 XD3/XA2/Q XD3/XA0/A AVSS AVSS sky130_fd_pr__nfet_01v8 ad=0p pd=0u as=0p ps=0u w=1.08e+06u l=180000u
X250 AVDD AVDD AVDD AVDD sky130_fd_pr__pfet_01v8 ad=0p pd=0u as=0p ps=0u w=1.08e+06u l=180000u
X251 AVSS AVSS AVSS AVSS sky130_fd_pr__nfet_01v8 ad=0p pd=0u as=0p ps=0u w=1.08e+06u l=180000u
X252 XE4/XA0/MP1/S XE4/XA0/A AVDD AVDD sky130_fd_pr__pfet_01v8 ad=0p pd=0u as=0p ps=0u w=1.08e+06u l=180000u
X253 Y<7> CN XE4/XA0/MP1/S AVDD sky130_fd_pr__pfet_01v8 ad=6.156e+11p pd=3.3e+06u as=0p ps=0u w=1.08e+06u l=180000u
X254 XE4/XA0/MN1/S XE4/XA0/A AVSS AVSS sky130_fd_pr__nfet_01v8 ad=0p pd=0u as=0p ps=0u w=1.08e+06u l=180000u
X255 Y<7> C XE4/XA0/MN1/S AVSS sky130_fd_pr__nfet_01v8 ad=6.156e+11p pd=3.3e+06u as=0p ps=0u w=1.08e+06u l=180000u
X256 AVDD AVDD AVDD AVDD sky130_fd_pr__pfet_01v8 ad=0p pd=0u as=0p ps=0u w=1.08e+06u l=180000u
X257 AVSS AVSS AVSS AVSS sky130_fd_pr__nfet_01v8 ad=0p pd=0u as=0p ps=0u w=1.08e+06u l=180000u
X258 XE4/XA2/XA7/C CK AVDD AVDD sky130_fd_pr__pfet_01v8 ad=0p pd=0u as=0p ps=0u w=1.08e+06u l=180000u
X259 AVDD C XE4/XA2/XA7/C AVDD sky130_fd_pr__pfet_01v8 ad=0p pd=0u as=0p ps=0u w=1.08e+06u l=180000u
X260 XE4/XA2/XA1/MN1/S CK AVSS AVSS sky130_fd_pr__nfet_01v8 ad=0p pd=0u as=0p ps=0u w=1.08e+06u l=180000u
X261 XE4/XA2/XA7/C C XE4/XA2/XA1/MN1/S AVSS sky130_fd_pr__nfet_01v8 ad=0p pd=0u as=0p ps=0u w=1.08e+06u l=180000u
X262 XE4/XA2/XA6/C XE4/XA2/XA7/C AVDD AVDD sky130_fd_pr__pfet_01v8 ad=0p pd=0u as=0p ps=0u w=1.08e+06u l=180000u
X263 XE4/XA2/XA6/C XE4/XA2/XA7/C AVSS AVSS sky130_fd_pr__nfet_01v8 ad=0p pd=0u as=0p ps=0u w=1.08e+06u l=180000u
X264 XE4/XA2/XA3/MP1/S D<7> AVDD AVDD sky130_fd_pr__pfet_01v8 ad=0p pd=0u as=0p ps=0u w=1.08e+06u l=180000u